<?xml version="1.0" encoding="UTF-8" standalone="yes"?>
<routes>
    <personFlow id="p0a" begin="1" period="5" impatience="0.00">
        <walk from="E0" to="-E0"/>
    </personFlow>
    <personFlow id="p0b" begin="1" period="5" impatience="1.00">
        <walk from="-E0" to="E0"/>
    </personFlow>
    <personFlow id="p1a" begin="1" period="5" impatience="0.00">
        <walk from="E1" to="-E1"/>
    </personFlow>
    <personFlow id="p1b" begin="1" period="5" impatience="1.00">
        <walk from="-E1" to="E1"/>
    </personFlow>
    <personFlow id="p10a" begin="1" period="5" impatience="0.04">
        <walk from="E10" to="-E10"/>
    </personFlow>
    <personFlow id="p10b" begin="1" period="5" impatience="0.96">
        <walk from="-E10" to="E10"/>
    </personFlow>
    <personFlow id="p100a" begin="1" period="5" impatience="0.38">
        <walk from="E100" to="-E100"/>
    </personFlow>
    <personFlow id="p100b" begin="1" period="5" impatience="0.62">
        <walk from="-E100" to="E100"/>
    </personFlow>
    <personFlow id="p101a" begin="1" period="5" impatience="0.38">
        <walk from="E101" to="-E101"/>
    </personFlow>
    <personFlow id="p101b" begin="1" period="5" impatience="0.62">
        <walk from="-E101" to="E101"/>
    </personFlow>
    <personFlow id="p102a" begin="1" period="5" impatience="0.38">
        <walk from="E102" to="-E102"/>
    </personFlow>
    <personFlow id="p102b" begin="1" period="5" impatience="0.62">
        <walk from="-E102" to="E102"/>
    </personFlow>
    <personFlow id="p103a" begin="1" period="5" impatience="0.39">
        <walk from="E103" to="-E103"/>
    </personFlow>
    <personFlow id="p103b" begin="1" period="5" impatience="0.61">
        <walk from="-E103" to="E103"/>
    </personFlow>
    <personFlow id="p104a" begin="1" period="5" impatience="0.39">
        <walk from="E104" to="-E104"/>
    </personFlow>
    <personFlow id="p104b" begin="1" period="5" impatience="0.61">
        <walk from="-E104" to="E104"/>
    </personFlow>
    <personFlow id="p105a" begin="1" period="5" impatience="0.39">
        <walk from="E105" to="-E105"/>
    </personFlow>
    <personFlow id="p105b" begin="1" period="5" impatience="0.61">
        <walk from="-E105" to="E105"/>
    </personFlow>
    <personFlow id="p106a" begin="1" period="5" impatience="0.40">
        <walk from="E106" to="-E106"/>
    </personFlow>
    <personFlow id="p106b" begin="1" period="5" impatience="0.60">
        <walk from="-E106" to="E106"/>
    </personFlow>
    <personFlow id="p107a" begin="1" period="5" impatience="0.40">
        <walk from="E107" to="-E107"/>
    </personFlow>
    <personFlow id="p107b" begin="1" period="5" impatience="0.60">
        <walk from="-E107" to="E107"/>
    </personFlow>
    <personFlow id="p108a" begin="1" period="5" impatience="0.41">
        <walk from="E108" to="-E108"/>
    </personFlow>
    <personFlow id="p108b" begin="1" period="5" impatience="0.59">
        <walk from="-E108" to="E108"/>
    </personFlow>
    <personFlow id="p109a" begin="1" period="5" impatience="0.41">
        <walk from="E109" to="-E109"/>
    </personFlow>
    <personFlow id="p109b" begin="1" period="5" impatience="0.59">
        <walk from="-E109" to="E109"/>
    </personFlow>
    <personFlow id="p11a" begin="1" period="5" impatience="0.04">
        <walk from="E11" to="-E11"/>
    </personFlow>
    <personFlow id="p11b" begin="1" period="5" impatience="0.96">
        <walk from="-E11" to="E11"/>
    </personFlow>
    <personFlow id="p110a" begin="1" period="5" impatience="0.41">
        <walk from="E110" to="-E110"/>
    </personFlow>
    <personFlow id="p110b" begin="1" period="5" impatience="0.59">
        <walk from="-E110" to="E110"/>
    </personFlow>
    <personFlow id="p111a" begin="1" period="5" impatience="0.42">
        <walk from="E111" to="-E111"/>
    </personFlow>
    <personFlow id="p111b" begin="1" period="5" impatience="0.58">
        <walk from="-E111" to="E111"/>
    </personFlow>
    <personFlow id="p112a" begin="1" period="5" impatience="0.42">
        <walk from="E112" to="-E112"/>
    </personFlow>
    <personFlow id="p112b" begin="1" period="5" impatience="0.58">
        <walk from="-E112" to="E112"/>
    </personFlow>
    <personFlow id="p113a" begin="1" period="5" impatience="0.42">
        <walk from="E113" to="-E113"/>
    </personFlow>
    <personFlow id="p113b" begin="1" period="5" impatience="0.58">
        <walk from="-E113" to="E113"/>
    </personFlow>
    <personFlow id="p114a" begin="1" period="5" impatience="0.43">
        <walk from="E114" to="-E114"/>
    </personFlow>
    <personFlow id="p114b" begin="1" period="5" impatience="0.57">
        <walk from="-E114" to="E114"/>
    </personFlow>
    <personFlow id="p115a" begin="1" period="5" impatience="0.43">
        <walk from="E115" to="-E115"/>
    </personFlow>
    <personFlow id="p115b" begin="1" period="5" impatience="0.57">
        <walk from="-E115" to="E115"/>
    </personFlow>
    <personFlow id="p116a" begin="1" period="5" impatience="0.44">
        <walk from="E116" to="-E116"/>
    </personFlow>
    <personFlow id="p116b" begin="1" period="5" impatience="0.56">
        <walk from="-E116" to="E116"/>
    </personFlow>
    <personFlow id="p117a" begin="1" period="5" impatience="0.44">
        <walk from="E117" to="-E117"/>
    </personFlow>
    <personFlow id="p117b" begin="1" period="5" impatience="0.56">
        <walk from="-E117" to="E117"/>
    </personFlow>
    <personFlow id="p118a" begin="1" period="5" impatience="0.44">
        <walk from="E118" to="-E118"/>
    </personFlow>
    <personFlow id="p118b" begin="1" period="5" impatience="0.56">
        <walk from="-E118" to="E118"/>
    </personFlow>
    <personFlow id="p119a" begin="1" period="5" impatience="0.45">
        <walk from="E119" to="-E119"/>
    </personFlow>
    <personFlow id="p119b" begin="1" period="5" impatience="0.55">
        <walk from="-E119" to="E119"/>
    </personFlow>
    <personFlow id="p12a" begin="1" period="5" impatience="0.05">
        <walk from="E12" to="-E12"/>
    </personFlow>
    <personFlow id="p12b" begin="1" period="5" impatience="0.95">
        <walk from="-E12" to="E12"/>
    </personFlow>
    <personFlow id="p120a" begin="1" period="5" impatience="0.45">
        <walk from="E120" to="-E120"/>
    </personFlow>
    <personFlow id="p120b" begin="1" period="5" impatience="0.55">
        <walk from="-E120" to="E120"/>
    </personFlow>
    <personFlow id="p121a" begin="1" period="5" impatience="0.45">
        <walk from="E121" to="-E121"/>
    </personFlow>
    <personFlow id="p121b" begin="1" period="5" impatience="0.55">
        <walk from="-E121" to="E121"/>
    </personFlow>
    <personFlow id="p122a" begin="1" period="5" impatience="0.46">
        <walk from="E122" to="-E122"/>
    </personFlow>
    <personFlow id="p122b" begin="1" period="5" impatience="0.54">
        <walk from="-E122" to="E122"/>
    </personFlow>
    <personFlow id="p123a" begin="1" period="5" impatience="0.46">
        <walk from="E123" to="-E123"/>
    </personFlow>
    <personFlow id="p123b" begin="1" period="5" impatience="0.54">
        <walk from="-E123" to="E123"/>
    </personFlow>
    <personFlow id="p124a" begin="1" period="5" impatience="0.47">
        <walk from="E124" to="-E124"/>
    </personFlow>
    <personFlow id="p124b" begin="1" period="5" impatience="0.53">
        <walk from="-E124" to="E124"/>
    </personFlow>
    <personFlow id="p125a" begin="1" period="5" impatience="0.47">
        <walk from="E125" to="-E125"/>
    </personFlow>
    <personFlow id="p125b" begin="1" period="5" impatience="0.53">
        <walk from="-E125" to="E125"/>
    </personFlow>
    <personFlow id="p126a" begin="1" period="5" impatience="0.47">
        <walk from="E126" to="-E126"/>
    </personFlow>
    <personFlow id="p126b" begin="1" period="5" impatience="0.53">
        <walk from="-E126" to="E126"/>
    </personFlow>
    <personFlow id="p127a" begin="1" period="5" impatience="0.48">
        <walk from="E127" to="-E127"/>
    </personFlow>
    <personFlow id="p127b" begin="1" period="5" impatience="0.52">
        <walk from="-E127" to="E127"/>
    </personFlow>
    <personFlow id="p128a" begin="1" period="5" impatience="0.48">
        <walk from="E128" to="-E128"/>
    </personFlow>
    <personFlow id="p128b" begin="1" period="5" impatience="0.52">
        <walk from="-E128" to="E128"/>
    </personFlow>
    <personFlow id="p129a" begin="1" period="5" impatience="0.48">
        <walk from="E129" to="-E129"/>
    </personFlow>
    <personFlow id="p129b" begin="1" period="5" impatience="0.52">
        <walk from="-E129" to="E129"/>
    </personFlow>
    <personFlow id="p13a" begin="1" period="5" impatience="0.05">
        <walk from="E13" to="-E13"/>
    </personFlow>
    <personFlow id="p13b" begin="1" period="5" impatience="0.95">
        <walk from="-E13" to="E13"/>
    </personFlow>
    <personFlow id="p130a" begin="1" period="5" impatience="0.49">
        <walk from="E130" to="-E130"/>
    </personFlow>
    <personFlow id="p130b" begin="1" period="5" impatience="0.51">
        <walk from="-E130" to="E130"/>
    </personFlow>
    <personFlow id="p131a" begin="1" period="5" impatience="0.49">
        <walk from="E131" to="-E131"/>
    </personFlow>
    <personFlow id="p131b" begin="1" period="5" impatience="0.51">
        <walk from="-E131" to="E131"/>
    </personFlow>
    <personFlow id="p132a" begin="1" period="5" impatience="0.50">
        <walk from="E132" to="-E132"/>
    </personFlow>
    <personFlow id="p132b" begin="1" period="5" impatience="0.50">
        <walk from="-E132" to="E132"/>
    </personFlow>
    <personFlow id="p133a" begin="1" period="5" impatience="0.50">
        <walk from="E133" to="-E133"/>
    </personFlow>
    <personFlow id="p133b" begin="1" period="5" impatience="0.50">
        <walk from="-E133" to="E133"/>
    </personFlow>
    <personFlow id="p134a" begin="1" period="5" impatience="0.50">
        <walk from="E134" to="-E134"/>
    </personFlow>
    <personFlow id="p134b" begin="1" period="5" impatience="0.50">
        <walk from="-E134" to="E134"/>
    </personFlow>
    <personFlow id="p135a" begin="1" period="5" impatience="0.51">
        <walk from="E135" to="-E135"/>
    </personFlow>
    <personFlow id="p135b" begin="1" period="5" impatience="0.49">
        <walk from="-E135" to="E135"/>
    </personFlow>
    <personFlow id="p136a" begin="1" period="5" impatience="0.51">
        <walk from="E136" to="-E136"/>
    </personFlow>
    <personFlow id="p136b" begin="1" period="5" impatience="0.49">
        <walk from="-E136" to="E136"/>
    </personFlow>
    <personFlow id="p137a" begin="1" period="5" impatience="0.52">
        <walk from="E137" to="-E137"/>
    </personFlow>
    <personFlow id="p137b" begin="1" period="5" impatience="0.48">
        <walk from="-E137" to="E137"/>
    </personFlow>
    <personFlow id="p138a" begin="1" period="5" impatience="0.52">
        <walk from="E138" to="-E138"/>
    </personFlow>
    <personFlow id="p138b" begin="1" period="5" impatience="0.48">
        <walk from="-E138" to="E138"/>
    </personFlow>
    <personFlow id="p139a" begin="1" period="5" impatience="0.52">
        <walk from="E139" to="-E139"/>
    </personFlow>
    <personFlow id="p139b" begin="1" period="5" impatience="0.48">
        <walk from="-E139" to="E139"/>
    </personFlow>
    <personFlow id="p14a" begin="1" period="5" impatience="0.05">
        <walk from="E14" to="-E14"/>
    </personFlow>
    <personFlow id="p14b" begin="1" period="5" impatience="0.95">
        <walk from="-E14" to="E14"/>
    </personFlow>
    <personFlow id="p140a" begin="1" period="5" impatience="0.53">
        <walk from="E140" to="-E140"/>
    </personFlow>
    <personFlow id="p140b" begin="1" period="5" impatience="0.47">
        <walk from="-E140" to="E140"/>
    </personFlow>
    <personFlow id="p141a" begin="1" period="5" impatience="0.53">
        <walk from="E141" to="-E141"/>
    </personFlow>
    <personFlow id="p141b" begin="1" period="5" impatience="0.47">
        <walk from="-E141" to="E141"/>
    </personFlow>
    <personFlow id="p142a" begin="1" period="5" impatience="0.53">
        <walk from="E142" to="-E142"/>
    </personFlow>
    <personFlow id="p142b" begin="1" period="5" impatience="0.47">
        <walk from="-E142" to="E142"/>
    </personFlow>
    <personFlow id="p143a" begin="1" period="5" impatience="0.54">
        <walk from="E143" to="-E143"/>
    </personFlow>
    <personFlow id="p143b" begin="1" period="5" impatience="0.46">
        <walk from="-E143" to="E143"/>
    </personFlow>
    <personFlow id="p144a" begin="1" period="5" impatience="0.54">
        <walk from="E144" to="-E144"/>
    </personFlow>
    <personFlow id="p144b" begin="1" period="5" impatience="0.46">
        <walk from="-E144" to="E144"/>
    </personFlow>
    <personFlow id="p145a" begin="1" period="5" impatience="0.55">
        <walk from="E145" to="-E145"/>
    </personFlow>
    <personFlow id="p145b" begin="1" period="5" impatience="0.45">
        <walk from="-E145" to="E145"/>
    </personFlow>
    <personFlow id="p146a" begin="1" period="5" impatience="0.55">
        <walk from="E146" to="-E146"/>
    </personFlow>
    <personFlow id="p146b" begin="1" period="5" impatience="0.45">
        <walk from="-E146" to="E146"/>
    </personFlow>
    <personFlow id="p147a" begin="1" period="5" impatience="0.55">
        <walk from="E147" to="-E147"/>
    </personFlow>
    <personFlow id="p147b" begin="1" period="5" impatience="0.45">
        <walk from="-E147" to="E147"/>
    </personFlow>
    <personFlow id="p148a" begin="1" period="5" impatience="0.56">
        <walk from="E148" to="-E148"/>
    </personFlow>
    <personFlow id="p148b" begin="1" period="5" impatience="0.44">
        <walk from="-E148" to="E148"/>
    </personFlow>
    <personFlow id="p149a" begin="1" period="5" impatience="0.56">
        <walk from="E149" to="-E149"/>
    </personFlow>
    <personFlow id="p149b" begin="1" period="5" impatience="0.44">
        <walk from="-E149" to="E149"/>
    </personFlow>
    <personFlow id="p15a" begin="1" period="5" impatience="0.06">
        <walk from="E15" to="-E15"/>
    </personFlow>
    <personFlow id="p15b" begin="1" period="5" impatience="0.94">
        <walk from="-E15" to="E15"/>
    </personFlow>
    <personFlow id="p150a" begin="1" period="5" impatience="0.56">
        <walk from="E150" to="-E150"/>
    </personFlow>
    <personFlow id="p150b" begin="1" period="5" impatience="0.44">
        <walk from="-E150" to="E150"/>
    </personFlow>
    <personFlow id="p151a" begin="1" period="5" impatience="0.57">
        <walk from="E151" to="-E151"/>
    </personFlow>
    <personFlow id="p151b" begin="1" period="5" impatience="0.43">
        <walk from="-E151" to="E151"/>
    </personFlow>
    <personFlow id="p152a" begin="1" period="5" impatience="0.57">
        <walk from="E152" to="-E152"/>
    </personFlow>
    <personFlow id="p152b" begin="1" period="5" impatience="0.43">
        <walk from="-E152" to="E152"/>
    </personFlow>
    <personFlow id="p153a" begin="1" period="5" impatience="0.58">
        <walk from="E153" to="-E153"/>
    </personFlow>
    <personFlow id="p153b" begin="1" period="5" impatience="0.42">
        <walk from="-E153" to="E153"/>
    </personFlow>
    <personFlow id="p154a" begin="1" period="5" impatience="0.58">
        <walk from="E154" to="-E154"/>
    </personFlow>
    <personFlow id="p154b" begin="1" period="5" impatience="0.42">
        <walk from="-E154" to="E154"/>
    </personFlow>
    <personFlow id="p155a" begin="1" period="5" impatience="0.58">
        <walk from="E155" to="-E155"/>
    </personFlow>
    <personFlow id="p155b" begin="1" period="5" impatience="0.42">
        <walk from="-E155" to="E155"/>
    </personFlow>
    <personFlow id="p156a" begin="1" period="5" impatience="0.59">
        <walk from="E156" to="-E156"/>
    </personFlow>
    <personFlow id="p156b" begin="1" period="5" impatience="0.41">
        <walk from="-E156" to="E156"/>
    </personFlow>
    <personFlow id="p157a" begin="1" period="5" impatience="0.59">
        <walk from="E157" to="-E157"/>
    </personFlow>
    <personFlow id="p157b" begin="1" period="5" impatience="0.41">
        <walk from="-E157" to="E157"/>
    </personFlow>
    <personFlow id="p158a" begin="1" period="5" impatience="0.59">
        <walk from="E158" to="-E158"/>
    </personFlow>
    <personFlow id="p158b" begin="1" period="5" impatience="0.41">
        <walk from="-E158" to="E158"/>
    </personFlow>
    <personFlow id="p159a" begin="1" period="5" impatience="0.60">
        <walk from="E159" to="-E159"/>
    </personFlow>
    <personFlow id="p159b" begin="1" period="5" impatience="0.40">
        <walk from="-E159" to="E159"/>
    </personFlow>
    <personFlow id="p16a" begin="1" period="5" impatience="0.06">
        <walk from="E16" to="-E16"/>
    </personFlow>
    <personFlow id="p16b" begin="1" period="5" impatience="0.94">
        <walk from="-E16" to="E16"/>
    </personFlow>
    <personFlow id="p160a" begin="1" period="5" impatience="0.60">
        <walk from="E160" to="-E160"/>
    </personFlow>
    <personFlow id="p160b" begin="1" period="5" impatience="0.40">
        <walk from="-E160" to="E160"/>
    </personFlow>
    <personFlow id="p161a" begin="1" period="5" impatience="0.61">
        <walk from="E161" to="-E161"/>
    </personFlow>
    <personFlow id="p161b" begin="1" period="5" impatience="0.39">
        <walk from="-E161" to="E161"/>
    </personFlow>
    <personFlow id="p162a" begin="1" period="5" impatience="0.61">
        <walk from="E162" to="-E162"/>
    </personFlow>
    <personFlow id="p162b" begin="1" period="5" impatience="0.39">
        <walk from="-E162" to="E162"/>
    </personFlow>
    <personFlow id="p163a" begin="1" period="5" impatience="0.61">
        <walk from="E163" to="-E163"/>
    </personFlow>
    <personFlow id="p163b" begin="1" period="5" impatience="0.39">
        <walk from="-E163" to="E163"/>
    </personFlow>
    <personFlow id="p164a" begin="1" period="5" impatience="0.62">
        <walk from="E164" to="-E164"/>
    </personFlow>
    <personFlow id="p164b" begin="1" period="5" impatience="0.38">
        <walk from="-E164" to="E164"/>
    </personFlow>
    <personFlow id="p165a" begin="1" period="5" impatience="0.62">
        <walk from="E165" to="-E165"/>
    </personFlow>
    <personFlow id="p165b" begin="1" period="5" impatience="0.38">
        <walk from="-E165" to="E165"/>
    </personFlow>
    <personFlow id="p166a" begin="1" period="5" impatience="0.62">
        <walk from="E166" to="-E166"/>
    </personFlow>
    <personFlow id="p166b" begin="1" period="5" impatience="0.38">
        <walk from="-E166" to="E166"/>
    </personFlow>
    <personFlow id="p167a" begin="1" period="5" impatience="0.63">
        <walk from="E167" to="-E167"/>
    </personFlow>
    <personFlow id="p167b" begin="1" period="5" impatience="0.37">
        <walk from="-E167" to="E167"/>
    </personFlow>
    <personFlow id="p168a" begin="1" period="5" impatience="0.63">
        <walk from="E168" to="-E168"/>
    </personFlow>
    <personFlow id="p168b" begin="1" period="5" impatience="0.37">
        <walk from="-E168" to="E168"/>
    </personFlow>
    <personFlow id="p169a" begin="1" period="5" impatience="0.64">
        <walk from="E169" to="-E169"/>
    </personFlow>
    <personFlow id="p169b" begin="1" period="5" impatience="0.36">
        <walk from="-E169" to="E169"/>
    </personFlow>
    <personFlow id="p17a" begin="1" period="5" impatience="0.06">
        <walk from="E17" to="-E17"/>
    </personFlow>
    <personFlow id="p17b" begin="1" period="5" impatience="0.94">
        <walk from="-E17" to="E17"/>
    </personFlow>
    <personFlow id="p170a" begin="1" period="5" impatience="0.64">
        <walk from="E170" to="-E170"/>
    </personFlow>
    <personFlow id="p170b" begin="1" period="5" impatience="0.36">
        <walk from="-E170" to="E170"/>
    </personFlow>
    <personFlow id="p171a" begin="1" period="5" impatience="0.64">
        <walk from="E171" to="-E171"/>
    </personFlow>
    <personFlow id="p171b" begin="1" period="5" impatience="0.36">
        <walk from="-E171" to="E171"/>
    </personFlow>
    <personFlow id="p172a" begin="1" period="5" impatience="0.65">
        <walk from="E172" to="-E172"/>
    </personFlow>
    <personFlow id="p172b" begin="1" period="5" impatience="0.35">
        <walk from="-E172" to="E172"/>
    </personFlow>
    <personFlow id="p173a" begin="1" period="5" impatience="0.65">
        <walk from="E173" to="-E173"/>
    </personFlow>
    <personFlow id="p173b" begin="1" period="5" impatience="0.35">
        <walk from="-E173" to="E173"/>
    </personFlow>
    <personFlow id="p174a" begin="1" period="5" impatience="0.65">
        <walk from="E174" to="-E174"/>
    </personFlow>
    <personFlow id="p174b" begin="1" period="5" impatience="0.35">
        <walk from="-E174" to="E174"/>
    </personFlow>
    <personFlow id="p175a" begin="1" period="5" impatience="0.66">
        <walk from="E175" to="-E175"/>
    </personFlow>
    <personFlow id="p175b" begin="1" period="5" impatience="0.34">
        <walk from="-E175" to="E175"/>
    </personFlow>
    <personFlow id="p176a" begin="1" period="5" impatience="0.66">
        <walk from="E176" to="-E176"/>
    </personFlow>
    <personFlow id="p176b" begin="1" period="5" impatience="0.34">
        <walk from="-E176" to="E176"/>
    </personFlow>
    <personFlow id="p177a" begin="1" period="5" impatience="0.67">
        <walk from="E177" to="-E177"/>
    </personFlow>
    <personFlow id="p177b" begin="1" period="5" impatience="0.33">
        <walk from="-E177" to="E177"/>
    </personFlow>
    <personFlow id="p178a" begin="1" period="5" impatience="0.67">
        <walk from="E178" to="-E178"/>
    </personFlow>
    <personFlow id="p178b" begin="1" period="5" impatience="0.33">
        <walk from="-E178" to="E178"/>
    </personFlow>
    <personFlow id="p179a" begin="1" period="5" impatience="0.67">
        <walk from="E179" to="-E179"/>
    </personFlow>
    <personFlow id="p179b" begin="1" period="5" impatience="0.33">
        <walk from="-E179" to="E179"/>
    </personFlow>
    <personFlow id="p18a" begin="1" period="5" impatience="0.07">
        <walk from="E18" to="-E18"/>
    </personFlow>
    <personFlow id="p18b" begin="1" period="5" impatience="0.93">
        <walk from="-E18" to="E18"/>
    </personFlow>
    <personFlow id="p180a" begin="1" period="5" impatience="0.68">
        <walk from="E180" to="-E180"/>
    </personFlow>
    <personFlow id="p180b" begin="1" period="5" impatience="0.32">
        <walk from="-E180" to="E180"/>
    </personFlow>
    <personFlow id="p181a" begin="1" period="5" impatience="0.68">
        <walk from="E181" to="-E181"/>
    </personFlow>
    <personFlow id="p181b" begin="1" period="5" impatience="0.32">
        <walk from="-E181" to="E181"/>
    </personFlow>
    <personFlow id="p182a" begin="1" period="5" impatience="0.68">
        <walk from="E182" to="-E182"/>
    </personFlow>
    <personFlow id="p182b" begin="1" period="5" impatience="0.32">
        <walk from="-E182" to="E182"/>
    </personFlow>
    <personFlow id="p183a" begin="1" period="5" impatience="0.69">
        <walk from="E183" to="-E183"/>
    </personFlow>
    <personFlow id="p183b" begin="1" period="5" impatience="0.31">
        <walk from="-E183" to="E183"/>
    </personFlow>
    <personFlow id="p184a" begin="1" period="5" impatience="0.69">
        <walk from="E184" to="-E184"/>
    </personFlow>
    <personFlow id="p184b" begin="1" period="5" impatience="0.31">
        <walk from="-E184" to="E184"/>
    </personFlow>
    <personFlow id="p185a" begin="1" period="5" impatience="0.70">
        <walk from="E185" to="-E185"/>
    </personFlow>
    <personFlow id="p185b" begin="1" period="5" impatience="0.30">
        <walk from="-E185" to="E185"/>
    </personFlow>
    <personFlow id="p186a" begin="1" period="5" impatience="0.70">
        <walk from="E186" to="-E186"/>
    </personFlow>
    <personFlow id="p186b" begin="1" period="5" impatience="0.30">
        <walk from="-E186" to="E186"/>
    </personFlow>
    <personFlow id="p187a" begin="1" period="5" impatience="0.70">
        <walk from="E187" to="-E187"/>
    </personFlow>
    <personFlow id="p187b" begin="1" period="5" impatience="0.30">
        <walk from="-E187" to="E187"/>
    </personFlow>
    <personFlow id="p189a" begin="1" period="5" impatience="0.71">
        <walk from="E189" to="-E189"/>
    </personFlow>
    <personFlow id="p189b" begin="1" period="5" impatience="0.29">
        <walk from="-E189" to="E189"/>
    </personFlow>
    <personFlow id="p19a" begin="1" period="5" impatience="0.07">
        <walk from="E19" to="-E19"/>
    </personFlow>
    <personFlow id="p19b" begin="1" period="5" impatience="0.93">
        <walk from="-E19" to="E19"/>
    </personFlow>
    <personFlow id="p190a" begin="1" period="5" impatience="0.71">
        <walk from="E190" to="-E190"/>
    </personFlow>
    <personFlow id="p190b" begin="1" period="5" impatience="0.29">
        <walk from="-E190" to="E190"/>
    </personFlow>
    <personFlow id="p191a" begin="1" period="5" impatience="0.72">
        <walk from="E191" to="-E191"/>
    </personFlow>
    <personFlow id="p191b" begin="1" period="5" impatience="0.28">
        <walk from="-E191" to="E191"/>
    </personFlow>
    <personFlow id="p192a" begin="1" period="5" impatience="0.72">
        <walk from="E192" to="-E192"/>
    </personFlow>
    <personFlow id="p192b" begin="1" period="5" impatience="0.28">
        <walk from="-E192" to="E192"/>
    </personFlow>
    <personFlow id="p193a" begin="1" period="5" impatience="0.73">
        <walk from="E193" to="-E193"/>
    </personFlow>
    <personFlow id="p193b" begin="1" period="5" impatience="0.27">
        <walk from="-E193" to="E193"/>
    </personFlow>
    <personFlow id="p194a" begin="1" period="5" impatience="0.73">
        <walk from="E194" to="-E194"/>
    </personFlow>
    <personFlow id="p194b" begin="1" period="5" impatience="0.27">
        <walk from="-E194" to="E194"/>
    </personFlow>
    <personFlow id="p195a" begin="1" period="5" impatience="0.73">
        <walk from="E195" to="-E195"/>
    </personFlow>
    <personFlow id="p195b" begin="1" period="5" impatience="0.27">
        <walk from="-E195" to="E195"/>
    </personFlow>
    <personFlow id="p196a" begin="1" period="5" impatience="0.74">
        <walk from="E196" to="-E196"/>
    </personFlow>
    <personFlow id="p196b" begin="1" period="5" impatience="0.26">
        <walk from="-E196" to="E196"/>
    </personFlow>
    <personFlow id="p197a" begin="1" period="5" impatience="0.74">
        <walk from="E197" to="-E197"/>
    </personFlow>
    <personFlow id="p197b" begin="1" period="5" impatience="0.26">
        <walk from="-E197" to="E197"/>
    </personFlow>
    <personFlow id="p198a" begin="1" period="5" impatience="0.74">
        <walk from="E198" to="-E198"/>
    </personFlow>
    <personFlow id="p198b" begin="1" period="5" impatience="0.26">
        <walk from="-E198" to="E198"/>
    </personFlow>
    <personFlow id="p2a" begin="1" period="5" impatience="0.01">
        <walk from="E2" to="-E2"/>
    </personFlow>
    <personFlow id="p2b" begin="1" period="5" impatience="0.99">
        <walk from="-E2" to="E2"/>
    </personFlow>
    <personFlow id="p20a" begin="1" period="5" impatience="0.08">
        <walk from="E20" to="-E20"/>
    </personFlow>
    <personFlow id="p20b" begin="1" period="5" impatience="0.92">
        <walk from="-E20" to="E20"/>
    </personFlow>
    <personFlow id="p200a" begin="1" period="5" impatience="0.75">
        <walk from="E200" to="-E200"/>
    </personFlow>
    <personFlow id="p200b" begin="1" period="5" impatience="0.25">
        <walk from="-E200" to="E200"/>
    </personFlow>
    <personFlow id="p201a" begin="1" period="5" impatience="0.76">
        <walk from="E201" to="-E201"/>
    </personFlow>
    <personFlow id="p201b" begin="1" period="5" impatience="0.24">
        <walk from="-E201" to="E201"/>
    </personFlow>
    <personFlow id="p202a" begin="1" period="5" impatience="0.76">
        <walk from="E202" to="-E202"/>
    </personFlow>
    <personFlow id="p202b" begin="1" period="5" impatience="0.24">
        <walk from="-E202" to="E202"/>
    </personFlow>
    <personFlow id="p203a" begin="1" period="5" impatience="0.76">
        <walk from="E203" to="-E203"/>
    </personFlow>
    <personFlow id="p203b" begin="1" period="5" impatience="0.24">
        <walk from="-E203" to="E203"/>
    </personFlow>
    <personFlow id="p204a" begin="1" period="5" impatience="0.77">
        <walk from="E204" to="-E204"/>
    </personFlow>
    <personFlow id="p204b" begin="1" period="5" impatience="0.23">
        <walk from="-E204" to="E204"/>
    </personFlow>
    <personFlow id="p205a" begin="1" period="5" impatience="0.77">
        <walk from="E205" to="-E205"/>
    </personFlow>
    <personFlow id="p205b" begin="1" period="5" impatience="0.23">
        <walk from="-E205" to="E205"/>
    </personFlow>